<?xml version="1.0" encoding="UTF-8"?>

<!-- generated on 2023-03-24 15:11:41 by Eclipse SUMO netedit Version 1.16.0
<configuration xmlns:xsi="http://www.w3.org/2001/XMLSchema-instance" xsi:noNamespaceSchemaLocation="http://sumo.dlr.de/xsd/netconvertConfiguration.xsd">

    <input>
        <sumo-net-file value="cross.net.xml"/>
    </input>

    <output>
        <output-file value="cross.net.xml"/>
    </output>

    <processing>
        <geometry.min-radius.fix.railways value="false"/>
        <geometry.max-grade.fix value="false"/>
        <offset.disable-normalization value="true"/>
        <lefthand value="1"/>
    </processing>

    <junctions>
        <no-turnarounds value="true"/>
        <junctions.corner-detail value="5"/>
        <junctions.limit-turn-speed value="5.50"/>
        <rectangular-lane-cut value="0"/>
    </junctions>

    <pedestrian>
        <walkingareas value="0"/>
    </pedestrian>

</configuration>
-->

<net version="1.16" junctionCornerDetail="5" lefthand="true" limitTurnSpeed="5.50" xmlns:xsi="http://www.w3.org/2001/XMLSchema-instance" xsi:noNamespaceSchemaLocation="http://sumo.dlr.de/xsd/net_file.xsd">

    <location netOffset="0.00,0.00" convBoundary="0.00,0.00,400.00,400.00" origBoundary="0.00,0.00,400.00,400.00" projParameter="!"/>

    <edge id=":A1_0" function="internal">
        <lane id=":A1_0_0" index="0" speed="3.65" length="4.67" shape="0.00,198.40 -1.20,199.20 -1.60,200.00 -1.20,200.80 0.00,201.60"/>
    </edge>
    <edge id=":B0_0" function="internal">
        <lane id=":B0_0_0" index="0" speed="3.65" length="4.67" shape="201.60,-0.00 200.80,-1.20 200.00,-1.60 199.20,-1.20 198.40,-0.00"/>
    </edge>
    <edge id=":B1_0" function="internal">
        <lane id=":B1_0_0" index="0" speed="6.51" length="9.03" shape="198.40,192.80 198.05,195.25 197.00,197.00 195.25,198.05 192.80,198.40"/>
    </edge>
    <edge id=":B1_1" function="internal">
        <lane id=":B1_1_0" index="0" speed="13.89" length="14.40" shape="198.40,192.80 198.40,207.20"/>
    </edge>
    <edge id=":B1_2" function="internal">
        <lane id=":B1_2_0" index="0" speed="8.00" length="4.07" shape="198.40,192.80 198.95,196.65 199.04,196.80"/>
    </edge>
    <edge id=":B1_3" function="internal">
        <lane id=":B1_3_0" index="0" speed="3.65" length="1.44" shape="198.40,192.80 199.20,194.00"/>
    </edge>
    <edge id=":B1_16" function="internal">
        <lane id=":B1_16_0" index="0" speed="8.00" length="10.13" shape="199.04,196.80 200.60,199.40 203.35,201.05 207.20,201.60"/>
    </edge>
    <edge id=":B1_17" function="internal">
        <lane id=":B1_17_0" index="0" speed="3.65" length="3.23" shape="199.20,194.00 200.00,194.40 200.80,194.00 201.60,192.80"/>
    </edge>
    <edge id=":B1_4" function="internal">
        <lane id=":B1_4_0" index="0" speed="6.51" length="9.03" shape="207.20,198.40 204.75,198.05 203.00,197.00 201.95,195.25 201.60,192.80"/>
    </edge>
    <edge id=":B1_5" function="internal">
        <lane id=":B1_5_0" index="0" speed="13.89" length="14.40" shape="207.20,198.40 192.80,198.40"/>
    </edge>
    <edge id=":B1_6" function="internal">
        <lane id=":B1_6_0" index="0" speed="8.00" length="4.07" shape="207.20,198.40 203.35,198.95 203.20,199.04"/>
    </edge>
    <edge id=":B1_7" function="internal">
        <lane id=":B1_7_0" index="0" speed="3.65" length="1.44" shape="207.20,198.40 206.00,199.20"/>
    </edge>
    <edge id=":B1_18" function="internal">
        <lane id=":B1_18_0" index="0" speed="8.00" length="10.13" shape="203.20,199.04 200.60,200.60 198.95,203.35 198.40,207.20"/>
    </edge>
    <edge id=":B1_19" function="internal">
        <lane id=":B1_19_0" index="0" speed="3.65" length="3.23" shape="206.00,199.20 205.60,200.00 206.00,200.80 207.20,201.60"/>
    </edge>
    <edge id=":B1_8" function="internal">
        <lane id=":B1_8_0" index="0" speed="6.51" length="9.03" shape="201.60,207.20 201.95,204.75 203.00,203.00 204.75,201.95 207.20,201.60"/>
    </edge>
    <edge id=":B1_9" function="internal">
        <lane id=":B1_9_0" index="0" speed="13.89" length="14.40" shape="201.60,207.20 201.60,192.80"/>
    </edge>
    <edge id=":B1_10" function="internal">
        <lane id=":B1_10_0" index="0" speed="8.00" length="4.07" shape="201.60,207.20 201.05,203.35 200.96,203.20"/>
    </edge>
    <edge id=":B1_11" function="internal">
        <lane id=":B1_11_0" index="0" speed="3.65" length="1.44" shape="201.60,207.20 200.80,206.00"/>
    </edge>
    <edge id=":B1_20" function="internal">
        <lane id=":B1_20_0" index="0" speed="8.00" length="10.13" shape="200.96,203.20 199.40,200.60 196.65,198.95 192.80,198.40"/>
    </edge>
    <edge id=":B1_21" function="internal">
        <lane id=":B1_21_0" index="0" speed="3.65" length="3.23" shape="200.80,206.00 200.00,205.60 199.20,206.00 198.40,207.20"/>
    </edge>
    <edge id=":B1_12" function="internal">
        <lane id=":B1_12_0" index="0" speed="6.51" length="9.03" shape="192.80,201.60 195.25,201.95 197.00,203.00 198.05,204.75 198.40,207.20"/>
    </edge>
    <edge id=":B1_13" function="internal">
        <lane id=":B1_13_0" index="0" speed="13.89" length="14.40" shape="192.80,201.60 207.20,201.60"/>
    </edge>
    <edge id=":B1_14" function="internal">
        <lane id=":B1_14_0" index="0" speed="8.00" length="4.07" shape="192.80,201.60 196.65,201.05 196.80,200.96"/>
    </edge>
    <edge id=":B1_15" function="internal">
        <lane id=":B1_15_0" index="0" speed="3.65" length="1.44" shape="192.80,201.60 194.00,200.80"/>
    </edge>
    <edge id=":B1_22" function="internal">
        <lane id=":B1_22_0" index="0" speed="8.00" length="10.13" shape="196.80,200.96 199.40,199.40 201.05,196.65 201.60,192.80"/>
    </edge>
    <edge id=":B1_23" function="internal">
        <lane id=":B1_23_0" index="0" speed="3.65" length="3.23" shape="194.00,200.80 194.40,200.00 194.00,199.20 192.80,198.40"/>
    </edge>
    <edge id=":B2_0" function="internal">
        <lane id=":B2_0_0" index="0" speed="3.65" length="4.67" shape="198.40,400.00 199.20,401.20 200.00,401.60 200.80,401.20 201.60,400.00"/>
    </edge>
    <edge id=":C1_0" function="internal">
        <lane id=":C1_0_0" index="0" speed="3.65" length="4.67" shape="400.00,201.60 401.20,200.80 401.60,200.00 401.20,199.20 400.00,198.40"/>
    </edge>

    <edge id="A1B1" from="A1" to="B1" priority="-1">
        <lane id="A1B1_0" index="0" speed="13.89" length="192.80" shape="0.00,201.60 192.80,201.60"/>
    </edge>
    <edge id="B0B1" from="B0" to="B1" priority="-1">
        <lane id="B0B1_0" index="0" speed="13.89" length="192.80" shape="198.40,0.00 198.40,192.80"/>
    </edge>
    <edge id="B1A1" from="B1" to="A1" priority="-1">
        <lane id="B1A1_0" index="0" speed="13.89" length="192.80" shape="192.80,198.40 0.00,198.40"/>
    </edge>
    <edge id="B1B0" from="B1" to="B0" priority="-1">
        <lane id="B1B0_0" index="0" speed="13.89" length="192.80" shape="201.60,192.80 201.60,0.00"/>
    </edge>
    <edge id="B1B2" from="B1" to="B2" priority="-1">
        <lane id="B1B2_0" index="0" speed="13.89" length="192.80" shape="198.40,207.20 198.40,400.00"/>
    </edge>
    <edge id="B1C1" from="B1" to="C1" priority="-1">
        <lane id="B1C1_0" index="0" speed="13.89" length="192.80" shape="207.20,201.60 400.00,201.60"/>
    </edge>
    <edge id="B2B1" from="B2" to="B1" priority="-1">
        <lane id="B2B1_0" index="0" speed="13.89" length="192.80" shape="201.60,400.00 201.60,207.20"/>
    </edge>
    <edge id="C1B1" from="C1" to="B1" priority="-1">
        <lane id="C1B1_0" index="0" speed="13.89" length="192.80" shape="400.00,198.40 207.20,198.40"/>
    </edge>

    <tlLogic id="B1" type="static" programID="0" offset="0">
        <phase duration="31" state="GGggrrrrGGggrrrr"/>
        <phase duration="6"  state="yyyyrrrryyyyrrrr"/>
        <phase duration="31" state="rrrrGGggrrrrGGgg"/>
        <phase duration="6"  state="rrrryyyyrrrryyyy"/>
    </tlLogic>

    <junction id="A1" type="priority" x="0.00" y="200.00" incLanes="B1A1_0" intLanes=":A1_0_0" shape="0.00,200.00 0.00,196.80 0.00,200.00">
        <request index="0" response="0" foes="0" cont="0"/>
    </junction>
    <junction id="B0" type="priority" x="200.00" y="0.00" incLanes="B1B0_0" intLanes=":B0_0_0" shape="200.00,-0.00 203.20,-0.00 200.00,-0.00">
        <request index="0" response="0" foes="0" cont="0"/>
    </junction>
    <junction id="B1" type="traffic_light" x="200.00" y="200.00" incLanes="B0B1_0 C1B1_0 B2B1_0 A1B1_0" intLanes=":B1_0_0 :B1_1_0 :B1_16_0 :B1_17_0 :B1_4_0 :B1_5_0 :B1_18_0 :B1_19_0 :B1_8_0 :B1_9_0 :B1_20_0 :B1_21_0 :B1_12_0 :B1_13_0 :B1_22_0 :B1_23_0" shape="196.80,192.80 203.20,192.80 203.64,195.02 204.20,195.80 204.98,196.36 205.98,196.69 207.20,196.80 207.20,203.20 204.98,203.64 204.20,204.20 203.64,204.98 203.31,205.98 203.20,207.20 196.80,207.20 196.36,204.98 195.80,204.20 195.02,203.64 194.02,203.31 192.80,203.20 192.80,196.80 195.02,196.36 195.80,195.80 196.36,195.02 196.69,194.02">
        <request index="0"  response="0000000000000000" foes="1000010000100000" cont="0"/>
        <request index="1"  response="0100000001000000" foes="0111110001100000" cont="0"/>
        <request index="2"  response="0100011101000000" foes="0110011111100000" cont="1"/>
        <request index="3"  response="0100001000010000" foes="0100001000010000" cont="1"/>
        <request index="4"  response="0000001000000000" foes="0100001000001000" cont="0"/>
        <request index="5"  response="0000011000000111" foes="1100011000000111" cont="0"/>
        <request index="6"  response="0011011000000110" foes="0111111000000110" cont="1"/>
        <request index="7"  response="0010000100000100" foes="0010000100000100" cont="1"/>
        <request index="8"  response="0000000000000000" foes="0010000010000100" cont="0"/>
        <request index="9"  response="0100000001000000" foes="0110000001111100" cont="0"/>
        <request index="10" response="0100000001000011" foes="1110000001100111" cont="1"/>
        <request index="11" response="0001000001000010" foes="0001000001000010" cont="1"/>
        <request index="12" response="0000000000000010" foes="0000100001000010" cont="0"/>
        <request index="13" response="0000011100000110" foes="0000011111000110" cont="0"/>
        <request index="14" response="0000011001110110" foes="0000011001111110" cont="1"/>
        <request index="15" response="0000010000100001" foes="0000010000100001" cont="1"/>
    </junction>
    <junction id="B2" type="priority" x="200.00" y="400.00" incLanes="B1B2_0" intLanes=":B2_0_0" shape="200.00,400.00 196.80,400.00 200.00,400.00">
        <request index="0" response="0" foes="0" cont="0"/>
    </junction>
    <junction id="C1" type="priority" x="400.00" y="200.00" incLanes="B1C1_0" intLanes=":C1_0_0" shape="400.00,200.00 400.00,203.20 400.00,200.00">
        <request index="0" response="0" foes="0" cont="0"/>
    </junction>

    <junction id=":B1_16_0" type="internal" x="199.04" y="196.80" incLanes=":B1_2_0 B2B1_0" intLanes=":B1_5_0 :B1_6_0 :B1_7_0 :B1_8_0 :B1_9_0 :B1_13_0 :B1_14_0"/>
    <junction id=":B1_17_0" type="internal" x="199.20" y="194.00" incLanes=":B1_3_0 A1B1_0 B2B1_0 C1B1_0" intLanes=":B1_4_0 :B1_9_0 :B1_14_0"/>
    <junction id=":B1_18_0" type="internal" x="203.20" y="199.04" incLanes=":B1_6_0 A1B1_0" intLanes=":B1_1_0 :B1_2_0 :B1_9_0 :B1_10_0 :B1_11_0 :B1_12_0 :B1_13_0"/>
    <junction id=":B1_19_0" type="internal" x="206.00" y="199.20" incLanes=":B1_7_0 A1B1_0 B0B1_0 B2B1_0" intLanes=":B1_2_0 :B1_8_0 :B1_13_0"/>
    <junction id=":B1_20_0" type="internal" x="200.96" y="203.20" incLanes=":B1_10_0 B0B1_0" intLanes=":B1_0_0 :B1_1_0 :B1_5_0 :B1_6_0 :B1_13_0 :B1_14_0 :B1_15_0"/>
    <junction id=":B1_21_0" type="internal" x="200.80" y="206.00" incLanes=":B1_11_0 A1B1_0 B0B1_0 C1B1_0" intLanes=":B1_1_0 :B1_6_0 :B1_12_0"/>
    <junction id=":B1_22_0" type="internal" x="196.80" y="200.96" incLanes=":B1_14_0 C1B1_0" intLanes=":B1_1_0 :B1_2_0 :B1_3_0 :B1_4_0 :B1_5_0 :B1_9_0 :B1_10_0"/>
    <junction id=":B1_23_0" type="internal" x="194.00" y="200.80" incLanes=":B1_15_0 B0B1_0 B2B1_0 C1B1_0" intLanes=":B1_0_0 :B1_5_0 :B1_10_0"/>

    <connection from="A1B1" to="B1B2" fromLane="0" toLane="0" via=":B1_12_0" tl="B1" linkIndex="12" dir="l" state="o"/>
    <connection from="A1B1" to="B1C1" fromLane="0" toLane="0" via=":B1_13_0" tl="B1" linkIndex="13" dir="s" state="o"/>
    <connection from="A1B1" to="B1B0" fromLane="0" toLane="0" via=":B1_14_0" tl="B1" linkIndex="14" dir="r" state="o"/>
    <connection from="A1B1" to="B1A1" fromLane="0" toLane="0" via=":B1_15_0" tl="B1" linkIndex="15" dir="T" state="o"/>
    <connection from="B0B1" to="B1A1" fromLane="0" toLane="0" via=":B1_0_0" tl="B1" linkIndex="0" dir="l" state="O"/>
    <connection from="B0B1" to="B1B2" fromLane="0" toLane="0" via=":B1_1_0" tl="B1" linkIndex="1" dir="s" state="O"/>
    <connection from="B0B1" to="B1C1" fromLane="0" toLane="0" via=":B1_2_0" tl="B1" linkIndex="2" dir="r" state="o"/>
    <connection from="B0B1" to="B1B0" fromLane="0" toLane="0" via=":B1_3_0" tl="B1" linkIndex="3" dir="T" state="o"/>
    <connection from="B1A1" to="A1B1" fromLane="0" toLane="0" via=":A1_0_0" dir="T" state="M"/>
    <connection from="B1B0" to="B0B1" fromLane="0" toLane="0" via=":B0_0_0" dir="T" state="M"/>
    <connection from="B1B2" to="B2B1" fromLane="0" toLane="0" via=":B2_0_0" dir="T" state="M"/>
    <connection from="B1C1" to="C1B1" fromLane="0" toLane="0" via=":C1_0_0" dir="T" state="M"/>
    <connection from="B2B1" to="B1C1" fromLane="0" toLane="0" via=":B1_8_0" tl="B1" linkIndex="8" dir="l" state="O"/>
    <connection from="B2B1" to="B1B0" fromLane="0" toLane="0" via=":B1_9_0" tl="B1" linkIndex="9" dir="s" state="O"/>
    <connection from="B2B1" to="B1A1" fromLane="0" toLane="0" via=":B1_10_0" tl="B1" linkIndex="10" dir="r" state="o"/>
    <connection from="B2B1" to="B1B2" fromLane="0" toLane="0" via=":B1_11_0" tl="B1" linkIndex="11" dir="T" state="o"/>
    <connection from="C1B1" to="B1B0" fromLane="0" toLane="0" via=":B1_4_0" tl="B1" linkIndex="4" dir="l" state="o"/>
    <connection from="C1B1" to="B1A1" fromLane="0" toLane="0" via=":B1_5_0" tl="B1" linkIndex="5" dir="s" state="o"/>
    <connection from="C1B1" to="B1B2" fromLane="0" toLane="0" via=":B1_6_0" tl="B1" linkIndex="6" dir="r" state="o"/>
    <connection from="C1B1" to="B1C1" fromLane="0" toLane="0" via=":B1_7_0" tl="B1" linkIndex="7" dir="T" state="o"/>

    <connection from=":A1_0" to="A1B1" fromLane="0" toLane="0" dir="T" state="M"/>
    <connection from=":B0_0" to="B0B1" fromLane="0" toLane="0" dir="T" state="M"/>
    <connection from=":B1_0" to="B1A1" fromLane="0" toLane="0" dir="l" state="M"/>
    <connection from=":B1_1" to="B1B2" fromLane="0" toLane="0" dir="s" state="M"/>
    <connection from=":B1_2" to="B1C1" fromLane="0" toLane="0" via=":B1_16_0" dir="r" state="m"/>
    <connection from=":B1_16" to="B1C1" fromLane="0" toLane="0" dir="r" state="M"/>
    <connection from=":B1_3" to="B1B0" fromLane="0" toLane="0" via=":B1_17_0" dir="T" state="m"/>
    <connection from=":B1_17" to="B1B0" fromLane="0" toLane="0" dir="T" state="M"/>
    <connection from=":B1_4" to="B1B0" fromLane="0" toLane="0" dir="l" state="M"/>
    <connection from=":B1_5" to="B1A1" fromLane="0" toLane="0" dir="s" state="M"/>
    <connection from=":B1_6" to="B1B2" fromLane="0" toLane="0" via=":B1_18_0" dir="r" state="m"/>
    <connection from=":B1_18" to="B1B2" fromLane="0" toLane="0" dir="r" state="M"/>
    <connection from=":B1_7" to="B1C1" fromLane="0" toLane="0" via=":B1_19_0" dir="T" state="m"/>
    <connection from=":B1_19" to="B1C1" fromLane="0" toLane="0" dir="T" state="M"/>
    <connection from=":B1_8" to="B1C1" fromLane="0" toLane="0" dir="l" state="M"/>
    <connection from=":B1_9" to="B1B0" fromLane="0" toLane="0" dir="s" state="M"/>
    <connection from=":B1_10" to="B1A1" fromLane="0" toLane="0" via=":B1_20_0" dir="r" state="m"/>
    <connection from=":B1_20" to="B1A1" fromLane="0" toLane="0" dir="r" state="M"/>
    <connection from=":B1_11" to="B1B2" fromLane="0" toLane="0" via=":B1_21_0" dir="T" state="m"/>
    <connection from=":B1_21" to="B1B2" fromLane="0" toLane="0" dir="T" state="M"/>
    <connection from=":B1_12" to="B1B2" fromLane="0" toLane="0" dir="l" state="M"/>
    <connection from=":B1_13" to="B1C1" fromLane="0" toLane="0" dir="s" state="M"/>
    <connection from=":B1_14" to="B1B0" fromLane="0" toLane="0" via=":B1_22_0" dir="r" state="m"/>
    <connection from=":B1_22" to="B1B0" fromLane="0" toLane="0" dir="r" state="M"/>
    <connection from=":B1_15" to="B1A1" fromLane="0" toLane="0" via=":B1_23_0" dir="T" state="m"/>
    <connection from=":B1_23" to="B1A1" fromLane="0" toLane="0" dir="T" state="M"/>
    <connection from=":B2_0" to="B2B1" fromLane="0" toLane="0" dir="T" state="M"/>
    <connection from=":C1_0" to="C1B1" fromLane="0" toLane="0" dir="T" state="M"/>

</net>
